Version 4
SHEET 1 880 680
WIRE 336 -16 224 -16
WIRE 448 -16 416 -16
WIRE 224 0 224 -16
WIRE 224 112 224 80
WIRE 320 160 224 160
WIRE 0 192 -160 192
WIRE 176 192 80 192
WIRE -160 320 -160 192
WIRE 224 320 224 208
WIRE 224 320 -160 320
WIRE 320 320 320 160
WIRE 320 320 224 320
WIRE 448 320 448 -16
WIRE 448 320 320 320
WIRE 224 384 224 320
FLAG 224 384 0
SYMBOL Misc\\battery 320 -16 R270
WINDOW 0 32 56 VTop 2
WINDOW 3 -32 56 VBottom 2
WINDOW 123 0 0 Left 0
WINDOW 39 0 0 Left 0
SYMATTR InstName V1
SYMATTR Value 16
SYMBOL res 208 -16 R0
SYMATTR InstName R1
SYMATTR Value 0.5
SYMBOL nmos4 176 112 R0
SYMATTR InstName M2
SYMATTR Value TestN
SYMATTR Value2 l=10u w=100u
SYMBOL Misc\\signal 96 192 R90
WINDOW 0 -32 56 VBottom 2
WINDOW 3 32 56 VTop 2
WINDOW 123 0 0 Left 0
WINDOW 39 0 0 Left 0
SYMATTR InstName V3
SYMATTR Value ""
TEXT -840 -104 Left 2 !.model TestN nmos(kp=9.3 vt0=4 lambda=0.01)
TEXT -842 408 Left 2 !.dc V3 0 10 1
